LAMMPS (11 Aug 2017)
#LJ molecules in a 2D box
variable        Diam equal 0.01
variable	coeffRes equal 0.1
variable	coeffFric equal 0.5

variable	rlo equal 0.3
variable	rhi equal 0.6
variable	dlo equal 2.0*0.3
variable	dhi equal 2.0*0.6
variable 	skin equal 0.6

variable	kn equal 10^5
variable	kt equal 0.2*100000

variable	gravity equal 1.0
variable	density equal 1.0

variable	min_mass equal 1*4.0/3.0*PI*0.3*0.3*0.3
variable	a equal (-2.0*log(0.1)/PI)^2
variable        gamma_n equal sqrt(0.405284734569351*2*100000/0.113097335529233/(1+0.25*$a))
variable        gamma_n equal sqrt(0.405284734569351*2*100000/0.113097335529233/(1+0.25*0.405284734569351))
variable        gamma_t equal 806.699778405191*0.5

dimension 	2
units		si
atom_style	sphere
boundary 	f f p

read_data       /home/clr56/Documents/DukeThesis/ParticleFiles/lammps_full_disk.lj
  orthogonal box = (-0.59 -0.59 -0.5) to (0.59 0.59 0.5)
  reading atoms ...
  7860 atoms
region		diskinner sphere 0.0 0.0 0 0.05 side out
region		diskouter sphere 0.0 0.0 0 0.5 side in

atom_modify	sort 0 0
neigh_modify    delay 0 every 1 one 100

set 		group all density 0.01
  7860 settings made for density
set 		group all diameter 0.01
  7860 settings made for diameter

comm_modify	vel yes

#now to print out info
dump pos 	all custom 1000 /media/clr56/Data/HydroEquil/pos_lammps_out*.txt id type x y z vx vy vz

#Apply capillary/viscous and contact
pair_style 	hooke/cap/init 100000 20000 806.699778405191 403.349889202595 0.5 0 10.0 10.0 0.78 0.00001 10.0 /home/clr56/Desktop/Results/Thesis/SweepSimulations/Viscosity_100.0/SaturationInterpolated.txt
pair_coeff	* *

timestep	0.00000001
fix 		innerannulus all wall/gran/region hooke/history 10000.0 2000.0 2000.0 1000.0 0.5 1 region diskinner
fix		outerannulus all wall/gran/region hooke/history 10000.0 2000.0 2000.0 1000.0 0.5 1 region diskouter

fix		2 all nve/sphere

thermo		100
run		100000
  update every 1 steps, delay 0 steps, check yes
Step Temp E_pair E_mol TotEng Press
0            0            0            0            0    557.25425
Averages over the last 501 of 1001 rows, steps 50000 to 100000:
Temp E_pair E_mol TotEng Press
5.41938e+18 0 0 0.588031 518.991
Loop time of 485.447 on 1 procs for 100000 steps with 7860 atoms
